Version 4
SHEET 1 880 680
WIRE 224 -48 176 -48
WIRE 336 -48 304 -48
WIRE -320 32 -352 32
WIRE -144 32 -320 32
WIRE -16 32 -80 32
WIRE 176 32 176 -48
WIRE 176 32 64 32
WIRE -320 64 -320 32
WIRE 256 128 256 80
WIRE 176 144 176 32
WIRE 224 144 176 144
WIRE 336 160 336 -48
WIRE 336 160 288 160
WIRE 432 160 336 160
WIRE 576 160 496 160
WIRE 608 160 576 160
WIRE -320 176 -320 144
WIRE 224 176 160 176
WIRE 576 208 576 160
WIRE -48 240 -160 240
WIRE 256 240 256 192
WIRE 160 256 160 176
WIRE -320 272 -272 240
WIRE -160 272 -160 240
WIRE -48 272 -48 240
WIRE 576 320 576 288
WIRE -320 384 -320 352
WIRE -128 416 -160 352
FLAG -320 384 0
FLAG 256 80 VCC
FLAG -272 240 VCC
FLAG -352 32 IN
IOPIN -352 32 In
FLAG 608 160 OUT
IOPIN 608 160 Out
FLAG -320 176 0
FLAG 576 320 0
FLAG -48 272 0
FLAG -128 416 VEE
FLAG 256 240 VEE
FLAG 160 256 0
SYMBOL res -32 48 R270
WINDOW 0 32 56 VTop 0
WINDOW 3 0 56 VBottom 0
SYMATTR InstName R1
SYMATTR Value 1k
SYMBOL res 208 -32 R270
WINDOW 0 32 56 VTop 0
WINDOW 3 0 56 VBottom 0
SYMATTR InstName R2
SYMATTR Value 100k
SYMBOL cap -144 48 R270
WINDOW 0 37 32 VTop 0
WINDOW 3 0 32 VBottom 0
SYMATTR InstName C1
SYMATTR Value .1µf
SYMBOL cap 432 176 R270
WINDOW 0 32 32 VTop 0
WINDOW 3 0 32 VBottom 0
SYMATTR InstName C3
SYMATTR Value 10µf
SYMBOL Misc\\battery -320 256 R0
WINDOW 3 24 44 Left 0
WINDOW 123 0 0 Left 0
WINDOW 39 0 0 Left 0
SYMATTR Value 15
SYMATTR InstName V2
SYMBOL voltage -320 48 R0
WINDOW 3 -104 107 Left 0
WINDOW 123 -104 135 Left 0
WINDOW 39 0 0 Left 0
SYMATTR Value SINE(0 .2 100)
SYMATTR Value2 AC 1
SYMATTR InstName V1
SYMBOL res 560 192 R0
SYMATTR InstName R5
SYMATTR Value 1k
SYMBOL Misc\\battery -160 256 R0
WINDOW 123 0 0 Left 0
WINDOW 39 0 0 Left 0
SYMATTR InstName V3
SYMATTR Value 15
SYMBOL Opamps\\LT1001 256 96 R0
SYMATTR InstName U2
TEXT -416 -64 Left 0 !.tran 0 .1 0
TEXT 80 -152 Left 0 ;Inverting amplifier
TEXT 512 368 Left 0 ;load resistor
